<?xml version="1.0" encoding="utf-8"?>
<!DOCTYPE population SYSTEM "http://www.matsim.org/files/dtd/population_v6.dtd">

<population>



<!-- ====================================================================== -->

	<person id="p_0">
		<plan score="44.90215098539659" selected="yes">
			<activity type="home" link="56127" end_time="07:30:00" >
			</activity>
		</plan>

	</person>

<!-- ====================================================================== -->

	<person id="p_1">
		<plan score="-10035.653404570157" selected="yes">
			<activity type="home" link="622" end_time="07:30:00" >
			</activity>
			<leg mode="drt" dep_time="07:30:00" trav_time="00:12:14">
				<route type="generic" start_link="622" end_link="52060" trav_time="00:12:14" distance="0.0"></route>
			</leg>
			<activity type="train08" link="52060" start_time="07:42:14" >
			</activity>
		</plan>

	</person>

<!-- ====================================================================== -->

	<person id="p_10">
		<plan score="-10042.097849014603" selected="yes">
			<activity type="home" link="70433" end_time="07:30:00" >
			</activity>
			<leg mode="drt" dep_time="07:30:00" trav_time="00:13:12">
				<route type="generic" start_link="70433" end_link="52060" trav_time="00:13:12" distance="0.0"></route>
			</leg>
			<activity type="train08" link="52060" start_time="07:43:12" >
			</activity>
		</plan>

	</person>

<!-- ====================================================================== -->

	<person id="p_11">
		<plan score="44.90215098539659" selected="yes">
			<activity type="home" link="28106" end_time="07:30:00" >
			</activity>
		</plan>

	</person>

<!-- ====================================================================== -->

	<person id="p_12">
		<plan score="44.90215098539659" selected="yes">
			<activity type="home" link="10489" end_time="07:30:00" >
			</activity>
		</plan>

	</person>

<!-- ====================================================================== -->

	<person id="p_13">
		<plan score="44.90215098539659" selected="yes">
			<activity type="home" link="10487" end_time="07:30:00" >
			</activity>
		</plan>

	</person>

<!-- ====================================================================== -->

	<person id="p_14">
		<plan score="44.90215098539659" selected="yes">
			<activity type="home" link="51193" end_time="07:30:00" >
			</activity>
		</plan>

	</person>

<!-- ====================================================================== -->

	<person id="p_15">
		<plan score="44.90215098539659" selected="yes">
			<activity type="home" link="58737" end_time="07:30:00" >
			</activity>
		</plan>

	</person>

<!-- ====================================================================== -->

	<person id="p_16">
		<plan score="44.90215098539659" selected="yes">
			<activity type="home" link="56137" end_time="07:30:00" >
			</activity>
		</plan>

	</person>

<!-- ====================================================================== -->

	<person id="p_17">
		<plan score="44.90215098539659" selected="yes">
			<activity type="home" link="58743" end_time="07:30:00" >
			</activity>
		</plan>

	</person>

<!-- ====================================================================== -->

	<person id="p_18">
		<plan score="44.90215098539659" selected="yes">
			<activity type="home" link="56141" end_time="07:30:00" >
			</activity>
		</plan>

	</person>

<!-- ====================================================================== -->

	<person id="p_19">
		<plan score="44.90215098539659" selected="yes">
			<activity type="home" link="23546" end_time="07:30:00" >
			</activity>
		</plan>

	</person>

<!-- ====================================================================== -->

	<person id="p_2">
		<plan score="44.90215098539659" selected="yes">
			<activity type="home" link="28420" end_time="07:30:00" >
			</activity>
		</plan>

	</person>

<!-- ====================================================================== -->

	<person id="p_20">
		<plan score="-10035.653404570157" selected="yes">
			<activity type="home" link="45921" end_time="07:30:00" >
			</activity>
			<leg mode="drt" dep_time="07:30:00" trav_time="00:12:14">
				<route type="generic" start_link="45921" end_link="52060" trav_time="00:12:14" distance="0.0"></route>
			</leg>
			<activity type="train08" link="52060" start_time="07:42:14" >
			</activity>
		</plan>

	</person>

<!-- ====================================================================== -->

	<person id="p_21">
		<plan score="-10032.764515681269" selected="yes">
			<activity type="home" link="63120" end_time="07:30:00" >
			</activity>
			<leg mode="drt" dep_time="07:30:00" trav_time="00:11:48">
				<route type="generic" start_link="63120" end_link="52060" trav_time="00:11:48" distance="0.0"></route>
			</leg>
			<activity type="train08" link="52060" start_time="07:41:48" >
			</activity>
		</plan>

	</person>

<!-- ====================================================================== -->

	<person id="p_22">
		<plan score="-10037.542293459048" selected="yes">
			<activity type="home" link="17931" end_time="07:30:00" >
			</activity>
			<leg mode="drt" dep_time="07:30:00" trav_time="00:12:31">
				<route type="generic" start_link="17931" end_link="52060" trav_time="00:12:31" distance="0.0"></route>
			</leg>
			<activity type="train08" link="52060" start_time="07:42:31" >
			</activity>
		</plan>

	</person>

<!-- ====================================================================== -->

	<person id="p_23">
		<plan score="44.90215098539659" selected="yes">
			<activity type="home" link="10394" end_time="07:30:00" >
			</activity>
		</plan>

	</person>

<!-- ====================================================================== -->

	<person id="p_24">
		<plan score="44.90215098539659" selected="yes">
			<activity type="home" link="44824" end_time="07:30:00" >
			</activity>
		</plan>

	</person>

<!-- ====================================================================== -->

	<person id="p_25">
		<plan score="44.90215098539659" selected="yes">
			<activity type="home" link="19906" end_time="07:30:00" >
			</activity>
		</plan>

	</person>

<!-- ====================================================================== -->

	<person id="p_26">
		<plan score="50.909981847188874" selected="yes">
			<activity type="home" link="56137" end_time="08:30:00" >
			</activity>
		</plan>

	</person>

<!-- ====================================================================== -->

	<person id="p_27">
		<plan score="50.909981847188874" selected="yes">
			<activity type="home" link="56137" end_time="08:30:00" >
			</activity>
		</plan>

	</person>

<!-- ====================================================================== -->

	<person id="p_28">
		<plan score="50.909981847188874" selected="yes">
			<activity type="home" link="41025" end_time="08:30:00" >
			</activity>
		</plan>

	</person>

<!-- ====================================================================== -->

	<person id="p_29">
		<plan score="50.909981847188874" selected="yes">
			<activity type="home" link="2939" end_time="08:30:00" >
			</activity>
		</plan>

	</person>

<!-- ====================================================================== -->

	<person id="p_3">
		<plan score="44.90215098539659" selected="yes">
			<activity type="home" link="66867" end_time="07:30:00" >
			</activity>
		</plan>

	</person>

<!-- ====================================================================== -->

	<person id="p_30">
		<plan score="50.909981847188874" selected="yes">
			<activity type="home" link="10479" end_time="08:30:00" >
			</activity>
		</plan>

	</person>

<!-- ====================================================================== -->

	<person id="p_31">
		<plan score="50.909981847188874" selected="yes">
			<activity type="home" link="62664" end_time="08:30:00" >
			</activity>
		</plan>

	</person>

<!-- ====================================================================== -->

	<person id="p_32">
		<plan score="50.909981847188874" selected="yes">
			<activity type="home" link="58257" end_time="08:30:00" >
			</activity>
		</plan>

	</person>

<!-- ====================================================================== -->

	<person id="p_33">
		<plan score="50.909981847188874" selected="yes">
			<activity type="home" link="51197" end_time="08:30:00" >
			</activity>
		</plan>

	</person>

<!-- ====================================================================== -->

	<person id="p_34">
		<plan score="50.909981847188874" selected="yes">
			<activity type="home" link="65637" end_time="08:30:00" >
			</activity>
		</plan>

	</person>

<!-- ====================================================================== -->

	<person id="p_35">
		<plan score="50.909981847188874" selected="yes">
			<activity type="home" link="62660" end_time="08:30:00" >
			</activity>
		</plan>

	</person>

<!-- ====================================================================== -->

	<person id="p_36">
		<plan score="50.909981847188874" selected="yes">
			<activity type="home" link="62662" end_time="08:30:00" >
			</activity>
		</plan>

	</person>

<!-- ====================================================================== -->

	<person id="p_37">
		<plan score="-10038.423351486144" selected="yes">
			<activity type="home" link="7376" end_time="08:30:00" >
			</activity>
			<leg mode="drt" dep_time="08:30:00" trav_time="00:13:33">
				<route type="generic" start_link="7376" end_link="52060" trav_time="00:13:33" distance="0.0"></route>
			</leg>
			<activity type="train09" link="52060" start_time="08:43:33" >
			</activity>
		</plan>

	</person>

<!-- ====================================================================== -->

	<person id="p_38">
		<plan score="50.909981847188874" selected="yes">
			<activity type="home" link="7265" end_time="08:30:00" >
			</activity>
		</plan>

	</person>

<!-- ====================================================================== -->

	<person id="p_39">
		<plan score="50.909981847188874" selected="yes">
			<activity type="home" link="10485" end_time="08:30:00" >
			</activity>
		</plan>

	</person>

<!-- ====================================================================== -->

	<person id="p_4">
		<plan score="44.90215098539659" selected="yes">
			<activity type="home" link="58739" end_time="07:30:00" >
			</activity>
		</plan>

	</person>

<!-- ====================================================================== -->

	<person id="p_40">
		<plan score="50.909981847188874" selected="yes">
			<activity type="home" link="56137" end_time="08:30:00" >
			</activity>
		</plan>

	</person>

<!-- ====================================================================== -->

	<person id="p_41">
		<plan score="-10037.534462597256" selected="yes">
			<activity type="home" link="56139" end_time="08:30:00" >
			</activity>
			<leg mode="drt" dep_time="08:30:00" trav_time="00:13:25">
				<route type="generic" start_link="56139" end_link="52060" trav_time="00:13:25" distance="0.0"></route>
			</leg>
			<activity type="train09" link="52060" start_time="08:43:25" >
			</activity>
		</plan>

	</person>

<!-- ====================================================================== -->

	<person id="p_42">
		<plan score="50.909981847188874" selected="yes">
			<activity type="home" link="56131" end_time="08:30:00" >
			</activity>
		</plan>

	</person>

<!-- ====================================================================== -->

	<person id="p_43">
		<plan score="50.909981847188874" selected="yes">
			<activity type="home" link="62664" end_time="08:30:00" >
			</activity>
		</plan>

	</person>

<!-- ====================================================================== -->

	<person id="p_44">
		<plan score="50.909981847188874" selected="yes">
			<activity type="home" link="63122" end_time="08:30:00" >
			</activity>
		</plan>

	</person>

<!-- ====================================================================== -->

	<person id="p_45">
		<plan score="50.909981847188874" selected="yes">
			<activity type="home" link="37568" end_time="08:30:00" >
			</activity>
		</plan>

	</person>

<!-- ====================================================================== -->

	<person id="p_46">
		<plan score="-10047.201129263922" selected="yes">
			<activity type="home" link="66867" end_time="08:30:00" >
			</activity>
			<leg mode="drt" dep_time="08:30:00" trav_time="00:14:52">
				<route type="generic" start_link="66867" end_link="52060" trav_time="00:14:52" distance="0.0"></route>
			</leg>
			<activity type="train09" link="52060" start_time="08:44:52" >
			</activity>
		</plan>

	</person>

<!-- ====================================================================== -->

	<person id="p_47">
		<plan score="-10037.534462597256" selected="yes">
			<activity type="home" link="56139" end_time="08:30:00" >
			</activity>
			<leg mode="drt" dep_time="08:30:00" trav_time="00:13:25">
				<route type="generic" start_link="56139" end_link="52060" trav_time="00:13:25" distance="0.0"></route>
			</leg>
			<activity type="train09" link="52060" start_time="08:43:25" >
			</activity>
		</plan>

	</person>

<!-- ====================================================================== -->

	<person id="p_48">
		<plan score="-10038.423351486144" selected="yes">
			<activity type="home" link="7376" end_time="08:30:00" >
			</activity>
			<leg mode="drt" dep_time="08:30:00" trav_time="00:13:33">
				<route type="generic" start_link="7376" end_link="52060" trav_time="00:13:33" distance="0.0"></route>
			</leg>
			<activity type="train09" link="52060" start_time="08:43:33" >
			</activity>
		</plan>

	</person>

<!-- ====================================================================== -->

	<person id="p_49">
		<plan score="-10046.423351486144" selected="yes">
			<activity type="home" link="66867" end_time="08:30:00" >
			</activity>
			<leg mode="drt" dep_time="08:30:00" trav_time="00:14:45">
				<route type="generic" start_link="66867" end_link="52060" trav_time="00:14:45" distance="0.0"></route>
			</leg>
			<activity type="train09" link="52060" start_time="08:44:45" >
			</activity>
		</plan>

	</person>

<!-- ====================================================================== -->

	<person id="p_5">
		<plan score="44.90215098539659" selected="yes">
			<activity type="home" link="23546" end_time="07:30:00" >
			</activity>
		</plan>

	</person>

<!-- ====================================================================== -->

	<person id="p_6">
		<plan score="44.90215098539659" selected="yes">
			<activity type="home" link="56123" end_time="07:30:00" >
			</activity>
		</plan>

	</person>

<!-- ====================================================================== -->

	<person id="p_7">
		<plan score="44.90215098539659" selected="yes">
			<activity type="home" link="7376" end_time="07:30:00" >
			</activity>
		</plan>

	</person>

<!-- ====================================================================== -->

	<person id="p_8">
		<plan score="-10042.097849014603" selected="yes">
			<activity type="home" link="55679" end_time="07:30:00" >
			</activity>
			<leg mode="drt" dep_time="07:30:00" trav_time="00:13:12">
				<route type="generic" start_link="55679" end_link="52060" trav_time="00:13:12" distance="0.0"></route>
			</leg>
			<activity type="train08" link="52060" start_time="07:43:12" >
			</activity>
		</plan>

	</person>

<!-- ====================================================================== -->

	<person id="p_9">
		<plan score="-10032.764515681269" selected="yes">
			<activity type="home" link="622" end_time="07:30:00" >
			</activity>
			<leg mode="drt" dep_time="07:30:00" trav_time="00:11:48">
				<route type="generic" start_link="622" end_link="52060" trav_time="00:11:48" distance="0.0"></route>
			</leg>
			<activity type="train08" link="52060" start_time="07:41:48" >
			</activity>
		</plan>

	</person>

<!-- ====================================================================== -->

</population>
